
#======================================================================
# CRYSTAL DATA
#----------------------------------------------------------------------
data_VESTA_phase_1

_chemical_name_common                  'POSCAR                                '
_cell_length_a                         5.110600
_cell_length_b                         9.811800
_cell_length_c                         27.720200
_cell_angle_alpha                      90.000000
_cell_angle_beta                       90.000000
_cell_angle_gamma                      90.000000
_cell_volume                           1390.006817
_space_group_name_H-M_alt              'P 1'
_space_group_IT_number                 1

loop_
_space_group_symop_operation_xyz
   'x, y, z'

loop_
   _atom_site_label
   _atom_site_occupancy
   _atom_site_fract_x
   _atom_site_fract_y
   _atom_site_fract_z
   _atom_site_adp_type
   _atom_site_U_iso_or_equiv
   _atom_site_type_symbol
   O1         1.0     0.620226     0.398304     0.486777    Uiso  ? O
   Ti1        1.0     0.196163     0.466877     0.024312    Uiso  ? Ti
   Ti2        1.0     0.713656     0.509496     0.076229    Uiso  ? Ti
   Ti3        1.0     0.711834     0.054996     0.123800    Uiso  ? Ti
   Ti4        1.0     0.203022     0.102924     0.174738    Uiso  ? Ti
   Ti5        1.0     0.713183     0.150427     0.225561    Uiso  ? Ti
   Ti6        1.0     0.214616     0.196079     0.273236    Uiso  ? Ti
   Ti7        1.0     0.701712     0.238999     0.324886    Uiso  ? Ti
   Ti8        1.0     0.237459     0.309885     0.375951    Uiso  ? Ti
   Ti9        1.0     0.752081     0.324205     0.421571    Uiso  ? Ti
   Ti10       1.0     0.289638     0.282211     0.475293    Uiso  ? Ti
   Ti11       1.0     0.534425     0.242469     0.050501    Uiso  ? Ti
   Ti12       1.0     0.041146     0.282702     0.099357    Uiso  ? Ti
   Ti13       1.0     0.543492     0.327421     0.150551    Uiso  ? Ti
   Ti14       1.0     0.044026     0.378752     0.199389    Uiso  ? Ti
   Ti15       1.0     0.543114     0.423309     0.250683    Uiso  ? Ti
   Ti16       1.0     0.038988     0.465095     0.299270    Uiso  ? Ti
   Ti17       1.0     0.558193     0.523786     0.348928    Uiso  ? Ti
   Ti18       1.0     0.493426     0.078174     0.403389    Uiso  ? Ti
   Ti19       1.0     0.987913     0.064287     0.447249    Uiso  ? Ti
   Ti20       1.0     0.696198     0.966915     0.024304    Uiso  ? Ti
   Ti21       1.0     0.213661     0.009425     0.076085    Uiso  ? Ti
   Ti22       1.0     0.211978     0.555076     0.123821    Uiso  ? Ti
   Ti23       1.0     0.702609     0.602997     0.175048    Uiso  ? Ti
   Ti24       1.0     0.212492     0.651162     0.225730    Uiso  ? Ti
   Ti25       1.0     0.714485     0.696217     0.274235    Uiso  ? Ti
   Ti26       1.0     0.201301     0.740418     0.325529    Uiso  ? Ti
   Ti27       1.0     0.728113     0.808116     0.377280    Uiso  ? Ti
   Ti28       1.0     0.242326     0.830004     0.422454    Uiso  ? Ti
   Ti29       1.0     0.793655     0.786893     0.476570    Uiso  ? Ti
   Ti30       1.0     0.034373     0.742552     0.050484    Uiso  ? Ti
   Ti31       1.0     0.541079     0.782699     0.099472    Uiso  ? Ti
   Ti32       1.0     0.043552     0.827261     0.150497    Uiso  ? Ti
   Ti33       1.0     0.543906     0.878578     0.199607    Uiso  ? Ti
   Ti34       1.0     0.042023     0.923342     0.250543    Uiso  ? Ti
   Ti35       1.0     0.536831     0.964454     0.299593    Uiso  ? Ti
   Ti36       1.0     0.051161     0.025512     0.348097    Uiso  ? Ti
   Ti37       1.0     0.001485     0.578701     0.402874    Uiso  ? Ti
   Ti38       1.0     0.488650     0.569256     0.447687    Uiso  ? Ti
   Ti39       1.0     0.731163     0.395192     0.972288    Uiso  ? Ti
   Ti40       1.0     0.240343     0.377750     0.928155    Uiso  ? Ti
   Ti41       1.0     0.294556     0.924423     0.873369    Uiso  ? Ti
   Ti42       1.0     0.783274     0.980754     0.825345    Uiso  ? Ti
   Ti43       1.0     0.288671     0.019041     0.775643    Uiso  ? Ti
   Ti44       1.0     0.790489     0.062704     0.724929    Uiso  ? Ti
   Ti45       1.0     0.289710     0.108067     0.675125    Uiso  ? Ti
   Ti46       1.0     0.789562     0.151324     0.624836    Uiso  ? Ti
   Ti47       1.0     0.286781     0.191759     0.574775    Uiso  ? Ti
   Ti48       1.0     0.784900     0.230201     0.522844    Uiso  ? Ti
   Ti49       1.0     0.489956     0.128377     0.946446    Uiso  ? Ti
   Ti50       1.0     0.985527     0.141747     0.903369    Uiso  ? Ti
   Ti51       1.0     0.448358     0.205385     0.850172    Uiso  ? Ti
   Ti52       1.0     0.962753     0.246408     0.799483    Uiso  ? Ti
   Ti53       1.0     0.458933     0.290748     0.750944    Uiso  ? Ti
   Ti54       1.0     0.955479     0.335765     0.700149    Uiso  ? Ti
   Ti55       1.0     0.457019     0.380364     0.650147    Uiso  ? Ti
   Ti56       1.0     0.459728     0.923664     0.600490    Uiso  ? Ti
   Ti57       1.0     0.961780     0.967192     0.551282    Uiso  ? Ti
   Ti58       1.0     0.231494     0.895128     0.972211    Uiso  ? Ti
   Ti59       1.0     0.740434     0.877930     0.928197    Uiso  ? Ti
   Ti60       1.0     0.794369     0.424207     0.873367    Uiso  ? Ti
   Ti61       1.0     0.283133     0.480459     0.825500    Uiso  ? Ti
   Ti62       1.0     0.788904     0.518840     0.775845    Uiso  ? Ti
   Ti63       1.0     0.289458     0.562242     0.725178    Uiso  ? Ti
   Ti64       1.0     0.788780     0.608073     0.675812    Uiso  ? Ti
   Ti65       1.0     0.289876     0.651395     0.625846    Uiso  ? Ti
   Ti66       1.0     0.790390     0.693791     0.575606    Uiso  ? Ti
   Ti67       1.0     0.285663     0.735153     0.524958    Uiso  ? Ti
   Ti68       1.0     0.989770     0.628274     0.946496    Uiso  ? Ti
   Ti69       1.0     0.485599     0.641694     0.903501    Uiso  ? Ti
   Ti70       1.0     0.948381     0.705332     0.850388    Uiso  ? Ti
   Ti71       1.0     0.463026     0.746277     0.799729    Uiso  ? Ti
   Ti72       1.0     0.959256     0.790553     0.751318    Uiso  ? Ti
   Ti73       1.0     0.455785     0.835955     0.700578    Uiso  ? Ti
   Ti74       1.0     0.958384     0.879793     0.650630    Uiso  ? Ti
   Ti75       1.0     0.959754     0.426151     0.600514    Uiso  ? Ti
   Ti76       1.0     0.458773     0.472010     0.550241    Uiso  ? Ti
   Ti77       1.0     0.052003     0.181819     0.002104    Uiso  ? Ti
   Ti78       1.0     0.552216     0.681882     0.002217    Uiso  ? Ti
   Ti79       1.0     0.449060     0.009071     0.500880    Uiso  ? Ti
   Ti80       1.0     0.952733     0.514883     0.500860    Uiso  ? Ti
